<?xml version="1.0" encoding="UTF-8"?>

<!-- generated on 10/21/14 01:47:23 by SUMO polyconvert Version 0.21.0
<?xml version="1.0" encoding="UTF-8"?>

<configuration xmlns:xsi="http://www.w3.org/2001/XMLSchema-instance" xsi:noNamespaceSchemaLocation="http://sumo-sim.org/xsd/polyconvertConfiguration.xsd">

    <input>
        <net-file value="careggi.net.xml"/>
        <osm-files value="careggi.osm"/>
        <type-file value="typemap.xml"/>
    </input>

    <output>
        <output-file value="careggi.poly.xml"/>
    </output>

</configuration>
-->

<additional xmlns:xsi="http://www.w3.org/2001/XMLSchema-instance" xsi:noNamespaceSchemaLocation="http://sumo-sim.org/xsd/additional_file.xsd">
    <poly id="105883382" type="building" color="255,230,230" fill="1" layer="2.00" shape="3239.45,1015.64 3238.86,1013.26 3240.99,1010.41 3231.97,996.71 3223.74,1009.51 3225.75,1018.82 3239.45,1015.64"/>
    <poly id="105883383" type="building" color="255,230,230" fill="1" layer="2.00" shape="3229.85,1035.07 3225.75,1018.82 3239.45,1015.64 3241.07,1015.37 3244.95,1031.72 3230.23,1034.99 3229.85,1035.07"/>
    <poly id="105883386" type="amenity" color="237,199,199" fill="1" layer="2.00" shape="3282.71,1084.19 3284.16,1089.18 3297.99,1085.18 3296.09,1078.24 3301.06,1076.95 3303.99,1074.67 3304.57,1071.90 3303.68,1068.98 3300.87,1067.08 3298.23,1066.90 3293.11,1068.58 3291.02,1061.96 3277.63,1066.01 3278.90,1070.67 3262.90,1075.40 3261.34,1069.55 3253.26,1072.14 3254.90,1078.62 3258.85,1077.44 3262.43,1090.25 3282.71,1084.19"/>
    <poly id="105883386#1" type="building" color="255,230,230" fill="1" layer="2.00" shape="3282.71,1084.19 3284.16,1089.18 3297.99,1085.18 3296.09,1078.24 3301.06,1076.95 3303.99,1074.67 3304.57,1071.90 3303.68,1068.98 3300.87,1067.08 3298.23,1066.90 3293.11,1068.58 3291.02,1061.96 3277.63,1066.01 3278.90,1070.67 3262.90,1075.40 3261.34,1069.55 3253.26,1072.14 3254.90,1078.62 3258.85,1077.44 3262.43,1090.25 3282.71,1084.19"/>
    <poly id="105883388" type="building" color="255,230,230" fill="1" layer="2.00" shape="3280.18,1002.76 3298.51,999.81 3298.31,999.27 3295.84,986.84 3295.77,985.64 3277.86,988.81 3280.18,1002.76"/>
    <poly id="105883390" type="building" color="255,230,230" fill="1" layer="2.00" shape="3253.14,1008.37 3262.81,1006.38 3260.17,991.99 3250.51,993.77 3253.14,1008.37"/>
    <poly id="105883391" type="building" color="255,230,230" fill="1" layer="2.00" shape="3232.20,1043.86 3230.23,1034.99 3244.95,1031.72 3246.44,1040.58 3232.20,1043.86"/>
    <poly id="105883392" type="building" color="255,230,230" fill="1" layer="2.00" shape="3397.94,1020.49 3384.38,1021.57 3381.82,1021.78 3380.49,1005.63 3396.77,1004.00 3397.94,1020.49"/>
    <poly id="105883395" type="building" color="255,230,230" fill="1" layer="2.00" shape="3232.38,1045.15 3247.38,1041.36 3250.27,1054.35 3235.17,1057.92 3232.38,1045.15"/>
    <poly id="105883396" type="building" color="255,230,230" fill="1" layer="2.00" shape="3262.81,1006.38 3280.18,1002.76 3277.86,988.81 3260.17,991.99 3262.81,1006.38"/>
    <poly id="105883397" type="building" color="255,230,230" fill="1" layer="2.00" shape="3379.34,1005.89 3379.98,1005.69 3380.49,1005.63 3395.48,1003.87 3393.67,989.90 3377.80,991.21 3379.34,1005.89"/>
    <poly id="105883400" type="building" color="255,230,230" fill="1" layer="2.00" shape="3240.99,1010.41 3253.14,1008.37 3250.51,993.77 3231.97,996.71 3240.99,1010.41"/>
    <poly id="105884670" type="building" color="255,230,230" fill="1" layer="2.00" shape="3386.47,1049.45 3401.07,1048.46 3399.19,1030.11 3384.67,1031.97 3386.47,1049.45"/>
    <poly id="105884671" type="building" color="255,230,230" fill="1" layer="2.00" shape="3385.33,1031.67 3399.19,1030.11 3397.94,1020.49 3384.38,1021.57 3385.33,1031.67"/>
    <poly id="105884672" type="building" color="255,230,230" fill="1" layer="2.00" shape="3372.49,1055.20 3387.97,1053.58 3387.43,1049.70 3401.07,1048.46 3402.74,1066.36 3402.17,1067.43 3401.18,1068.14 3374.12,1070.53 3372.49,1055.20"/>
    <poly id="106145481" type="building" color="255,230,230" fill="1" layer="2.00" shape="3236.55,1066.47 3239.58,1078.15 3260.35,1072.71 3257.64,1060.39 3236.55,1066.47"/>
    <poly id="106145482" type="building" color="255,230,230" fill="1" layer="2.00" shape="3337.40,1050.92 3343.44,1059.26 3372.49,1055.20 3374.12,1070.53 3340.02,1073.59 3328.16,1057.34 3337.40,1050.92"/>
    <poly id="106145487" type="building" color="255,230,230" fill="1" layer="2.00" shape="3298.85,1022.96 3286.78,1029.96 3280.60,1034.95 3286.18,1044.15 3289.04,1042.28 3291.72,1047.09 3307.76,1036.99 3298.85,1022.96"/>
    <poly id="106145494" type="building" color="255,230,230" fill="1" layer="2.00" shape="3112.52,989.48 3133.99,985.99 3132.77,983.36 3141.66,982.11 3142.04,984.26 3154.85,981.60 3157.47,996.52 3114.95,1003.33 3112.52,989.48"/>
    <poly id="106145496" type="building" color="255,230,230" fill="1" layer="2.00" shape="3310.25,1082.19 3306.68,1069.45 3322.71,1064.57 3326.50,1077.27 3310.25,1082.19"/>
    <poly id="106145499" type="building" color="255,230,230" fill="1" layer="2.00" shape="3324.65,1003.66 3332.29,1016.56 3337.51,1015.19 3340.87,1026.70 3347.19,1024.50 3356.63,1018.95 3363.64,1030.98 3356.18,1035.51 3358.44,1039.66 3343.53,1047.86 3335.73,1032.79 3317.67,1037.90 3311.88,1028.49 3318.72,1023.08 3312.30,1013.00 3324.65,1003.66"/>
    <poly id="106159012" type="building" color="255,230,230" fill="1" layer="2.00" shape="3209.06,1068.61 3222.52,1065.97 3228.41,1091.74 3218.01,1108.89 3172.61,1122.29 3140.05,1132.27 3119.88,1123.76 3102.16,1092.50 3102.00,1090.66 3102.35,1089.38 3103.36,1088.23 3104.47,1087.19 3106.96,1086.71 3203.87,1069.23 3205.77,1082.30 3179.63,1086.54 3180.10,1089.35 3176.53,1089.79 3176.70,1091.20 3170.52,1092.21 3170.06,1089.18 3118.54,1097.47 3128.39,1112.80 3140.14,1117.21 3160.74,1110.35 3183.69,1104.08 3199.80,1099.35 3200.19,1101.19 3210.96,1098.04 3214.71,1091.36 3209.06,1068.61"/>
    <poly id="106159019" type="building" color="255,230,230" fill="1" layer="2.00" shape="3311.40,1149.21 3319.10,1159.75 3345.52,1141.10 3346.63,1140.05 3331.70,1117.48 3319.38,1125.54 3328.13,1137.40 3311.40,1149.21"/>
    <poly id="106159037" type="building" color="255,230,230" fill="1" layer="2.00" shape="3076.26,1024.54 3070.64,1036.44 3093.07,1077.19 3189.98,1059.59 3187.64,1046.30 3186.33,1047.12 3097.59,1062.25 3095.67,1053.16 3087.76,1054.34 3084.41,1042.52 3087.25,1040.98 3086.23,1038.81 3182.89,1022.39 3182.20,1020.21 3191.64,1018.53 3198.94,1023.79 3201.83,1036.89 3196.72,1038.05 3199.63,1050.17 3204.51,1049.23 3206.13,1057.45 3220.24,1054.61 3210.69,1012.71 3196.59,1003.06 3113.59,1017.81 3076.26,1024.54"/>
    <poly id="106159060" type="building" color="255,230,230" fill="1" layer="2.00" shape="3262.06,1113.00 3258.50,1124.75 3286.72,1166.83 3302.59,1155.42 3296.14,1146.21 3291.10,1148.87 3273.22,1123.42 3340.11,1101.99 3371.46,1148.26 3320.07,1187.52 3310.72,1173.93 3317.98,1169.19 3310.49,1158.65 3290.71,1171.24 3319.84,1211.62 3389.02,1153.91 3345.46,1087.94 3262.06,1113.00"/>
    <poly id="106159078" type="building" color="255,230,230" fill="1" layer="2.00" shape="3247.60,1207.82 3219.45,1230.52 3231.19,1243.43 3252.84,1225.50 3261.95,1235.98 3291.92,1209.90 3284.91,1202.07 3280.16,1205.92 3272.03,1194.94 3236.82,1143.73 3225.71,1139.45 3165.94,1156.97 3183.40,1178.42 3180.51,1181.14 3198.40,1202.40 3225.02,1180.53 3234.66,1191.65 3195.54,1224.27 3168.51,1189.96 3143.68,1157.98 3146.67,1147.30 3162.45,1142.89 3162.04,1141.80 3222.34,1124.28 3247.38,1132.82 3290.12,1193.06 3311.34,1218.61 3240.54,1276.82 3198.99,1228.45 3236.76,1197.63 3240.19,1198.37 3247.60,1207.82"/>
    <poly id="106216868" type="building" color="255,230,230" fill="1" layer="2.00" shape="3162.94,1204.13 3007.62,1260.81 3033.94,1305.53 3035.43,1306.44 3036.83,1306.48 3159.41,1250.19 3186.19,1238.55 3187.29,1233.73 3162.94,1204.13"/>
    <poly id="107541318" type="building" color="255,230,230" fill="1" layer="2.00" shape="1153.00,1195.97 1167.41,1182.56 1171.30,1178.67 1175.45,1174.76 1177.59,1172.91 1201.11,1202.04 1178.11,1220.97 1153.00,1195.97"/>
    <poly id="110311631" type="building" color="255,230,230" fill="1" layer="2.00" shape="1500.57,1854.34 1508.80,1855.68 1503.27,1884.53 1495.10,1883.08 1500.57,1854.34"/>
    <poly id="110311633" type="building" color="255,230,230" fill="1" layer="2.00" shape="1484.73,1867.46 1492.83,1869.02 1495.73,1853.72 1487.84,1852.00 1484.73,1867.46"/>
    <poly id="110311634" type="building" color="255,230,230" fill="1" layer="2.00" shape="1507.89,1885.52 1515.83,1887.08 1518.84,1871.56 1510.63,1869.88 1507.89,1885.52"/>
    <poly id="110354077" type="building" color="255,230,230" fill="1" layer="2.00" shape="2938.30,1102.30 2939.71,1108.40 2934.86,1109.52 2933.51,1103.57 2938.30,1102.30"/>
    <poly id="110354078" type="building" color="255,230,230" fill="1" layer="2.00" shape="2927.72,1006.52 2916.57,999.87 2904.29,1022.56 2915.28,1039.33 2939.79,1035.26 2966.30,1030.31 2962.52,1008.26 2943.27,1012.10 2944.92,1020.75 2920.32,1024.83 2916.46,1019.66 2917.37,1017.85 2920.77,1019.89 2927.72,1006.52"/>
    <poly id="110354079" type="building" color="255,230,230" fill="1" layer="2.00" shape="2961.12,1069.08 2970.88,1067.41 2969.19,1058.11 2977.66,1056.41 2979.12,1066.24 2989.10,1064.46 2986.33,1047.06 2983.95,1047.43 2983.04,1041.06 2958.85,1045.25 2959.99,1051.30 2957.82,1051.56 2961.12,1069.08"/>
    <poly id="110354081" type="building" color="255,230,230" fill="1" layer="2.00" shape="3084.78,1389.66 3043.38,1319.67 3044.67,1316.05 3132.41,1274.53 3197.55,1245.75 3210.93,1261.71 3200.55,1270.25 3195.05,1262.03 3120.12,1297.33 3063.35,1324.19 3080.04,1353.48 3085.53,1350.41 3083.30,1340.99 3100.04,1337.03 3106.67,1347.32 3098.42,1352.80 3104.77,1361.26 3175.13,1307.65 3171.88,1304.12 3183.02,1295.17 3187.74,1300.36 3212.95,1278.77 3206.14,1271.26 3213.54,1264.79 3230.18,1284.51 3157.46,1341.82 3119.61,1368.01 3084.78,1389.66"/>
    <poly id="110354082" type="building" color="255,230,230" fill="1" layer="2.00" shape="2953.04,933.17 2965.49,939.97 2974.93,922.57 2984.56,939.21 3023.48,1007.29 3018.44,1009.84 3013.99,1002.94 3006.31,1007.47 3014.11,1022.21 3033.32,1018.75 3038.05,1007.91 2981.01,905.41 2969.04,904.76 2953.04,933.17"/>
    <poly id="110354085" type="building" color="255,230,230" fill="1" layer="2.00" shape="2973.01,1000.97 2987.01,998.45 2989.22,1012.17 3000.29,1010.10 3002.51,1024.05 2977.56,1028.32 2973.01,1000.97"/>
    <poly id="110354088" type="building" color="255,230,230" fill="1" layer="2.00" shape="2991.46,1053.01 3033.32,1046.52 3049.43,1053.94 3055.14,1066.26 3045.03,1068.79 3048.76,1082.22 3074.64,1075.83 3075.78,1073.49 3059.21,1043.56 3034.90,1032.03 2989.12,1039.93 2991.46,1053.01"/>
    <poly id="110354089" type="building" color="255,230,230" fill="1" layer="2.00" shape="2972.41,999.12 2986.40,996.92 2982.52,972.93 2968.55,974.81 2972.41,999.12"/>
    <poly id="110354090" type="building" color="255,230,230" fill="1" layer="2.00" shape="3006.26,1092.70 3045.62,1082.78 3041.00,1065.87 3032.53,1067.80 3033.77,1073.65 3029.98,1074.29 3026.96,1061.84 3012.62,1065.33 3015.40,1078.31 3012.03,1079.08 3010.67,1073.34 3002.09,1075.25 3006.26,1092.70"/>
    <poly id="110354092" type="building" color="255,230,230" fill="1" layer="2.00" shape="2911.80,1099.43 2918.27,1095.46 2918.90,1096.86 2924.66,1093.24 2933.30,1107.28 2920.48,1114.25 2911.80,1099.43"/>
    <poly id="110354093" type="building" color="255,230,230" fill="1" layer="2.00" shape="3083.03,949.94 3090.37,946.16 3089.97,944.96 3098.54,943.37 3108.54,1004.66 3073.47,1011.56 3050.03,1000.26 3034.78,973.16 3048.14,966.10 3060.37,989.25 3076.22,997.96 3095.10,994.04 3089.05,962.91 3085.67,964.33 3083.03,949.94"/>
    <poly id="110354095" type="building" color="255,230,230" fill="1" layer="2.00" shape="2921.05,991.97 2926.15,994.91 2925.18,996.81 2940.99,1005.16 2945.48,997.04 2936.71,991.91 2940.85,984.60 2949.90,989.15 2954.23,980.98 2939.09,971.96 2937.74,973.91 2932.85,970.88 2921.05,991.97"/>
    <poly id="110354096" type="building" color="255,230,230" fill="1" layer="2.00" shape="2961.36,1080.07 2970.17,1077.72 2972.60,1087.37 2999.57,1080.68 3001.10,1087.61 2999.80,1088.11 3001.25,1094.17 2968.64,1102.11 2967.29,1096.37 2965.43,1097.08 2961.36,1080.07"/>
    <poly id="110355063" type="amenity" color="237,199,199" fill="1" layer="2.00" shape="1359.56,1828.63 1378.80,1819.68 1373.52,1807.49 1407.60,1792.91 1401.14,1776.39 1358.78,1793.75 1349.17,1797.36 1345.24,1799.41 1359.56,1828.63"/>
    <poly id="110355063#1" type="building" color="255,230,230" fill="1" layer="2.00" shape="1359.56,1828.63 1378.80,1819.68 1373.52,1807.49 1407.60,1792.91 1401.14,1776.39 1358.78,1793.75 1349.17,1797.36 1345.24,1799.41 1359.56,1828.63"/>
    <poly id="110355064" type="leisure" color="207,245,201" fill="1" layer="0.00" shape="2777.37,1703.88 2652.59,1702.63 2652.18,1749.54 2663.40,1749.84 2665.31,1790.78 2689.14,1787.99 2716.77,1836.08 2784.77,1797.47 2777.37,1703.88"/>
    <poly id="110355065" type="shop" color="237,199,255" fill="1" layer="2.00" shape="1666.68,1811.09 1659.42,1791.96 1714.81,1771.93 1720.77,1791.03 1666.68,1811.09"/>
    <poly id="110355066" type="amenity" color="237,199,199" fill="1" layer="2.00" shape="1750.66,1931.71 1768.30,1917.98 1745.72,1890.69 1727.59,1906.12 1750.66,1931.71"/>
    <poly id="110355067" type="building" color="255,230,230" fill="1" layer="2.00" shape="2579.22,1732.50 2582.66,1701.17 2630.91,1705.49 2628.78,1736.42 2579.22,1732.50"/>
    <poly id="110355067#1" type="leisure" color="207,245,201" fill="1" layer="0.00" shape="2579.22,1732.50 2582.66,1701.17 2630.91,1705.49 2628.78,1736.42 2579.22,1732.50"/>
    <poly id="110355067#2" type="sport" color="79,230,125" fill="1" layer="2.00" shape="2579.22,1732.50 2582.66,1701.17 2630.91,1705.49 2628.78,1736.42 2579.22,1732.50"/>
    <poly id="110355068" type="building" color="255,230,230" fill="1" layer="2.00" shape="1341.46,1796.54 1365.65,1858.43 1277.29,1892.72 1253.09,1830.83 1341.46,1796.54"/>
    <poly id="110355068#1" type="shop" color="237,199,255" fill="1" layer="2.00" shape="1341.46,1796.54 1365.65,1858.43 1277.29,1892.72 1253.09,1830.83 1341.46,1796.54"/>
    <poly id="110363990" type="building" color="255,230,230" fill="1" layer="2.00" shape="2555.00,2724.62 2609.23,2710.05 2585.47,2626.49 2578.76,2627.94 2574.30,2628.91 2541.76,2673.32 2555.00,2724.62"/>
    <poly id="110364127" type="amenity" color="237,199,199" fill="1" layer="2.00" shape="2316.57,2823.11 2359.59,2800.96 2330.35,2743.41 2299.63,2749.87 2311.36,2771.46 2293.73,2778.59 2298.69,2796.44 2313.31,2816.30 2316.57,2823.11"/>
    <poly id="110401503" type="building" color="255,230,230" fill="1" layer="2.00" shape="2606.78,971.44 2616.85,958.38 2665.76,1002.74 2666.53,1006.21 2638.12,1026.31 2623.72,1039.91 2614.66,1055.36 2599.54,1047.43 2615.54,1022.68 2602.26,1010.71 2622.50,989.31 2606.78,971.44"/>
    <poly id="110401505" type="building" color="255,230,230" fill="1" layer="2.00" shape="2688.32,1009.83 2716.50,984.15 2735.10,965.26 2761.48,1004.07 2750.71,1010.88 2748.03,1012.69 2741.68,1016.92 2725.83,1022.29 2718.09,1013.17 2706.30,1023.04 2694.74,1027.17 2688.32,1009.83"/>
    <poly id="110401507" type="building" color="255,230,230" fill="1" layer="2.00" shape="2911.91,1441.34 2909.97,1425.36 2936.66,1420.50 2937.96,1436.45 2925.82,1438.06 2926.16,1441.29 2911.91,1441.34"/>
    <poly id="110401516" type="building" color="255,230,230" fill="1" layer="2.00" shape="2646.30,1059.23 2637.68,1050.61 2634.16,1053.10 2620.27,1079.41 2609.98,1100.43 2620.22,1112.98 2683.13,1094.89 2694.24,1091.31 2693.64,1089.36 2699.08,1088.22 2696.17,1075.87 2638.26,1093.02 2631.49,1095.63 2631.20,1098.42 2625.88,1095.48 2631.11,1085.94 2633.87,1087.30 2646.30,1059.23"/>
    <poly id="110401521" type="building" color="255,230,230" fill="1" layer="2.00" shape="2621.69,1138.41 2651.06,1130.60 2654.34,1144.89 2667.63,1140.52 2664.90,1129.90 2676.43,1126.77 2679.26,1133.73 2686.68,1131.14 2685.39,1122.92 2698.24,1118.97 2729.63,1195.78 2597.06,1146.78 2603.23,1134.47 2593.66,1136.79 2584.27,1156.55 2732.40,1212.86 2748.14,1205.98 2708.19,1102.45 2618.73,1128.00 2621.69,1138.41"/>
    <poly id="110401527" type="building" color="255,230,230" fill="1" layer="2.00" shape="2445.04,1305.36 2459.46,1315.00 2455.36,1322.86 2458.31,1325.73 2460.33,1322.99 2468.33,1330.31 2509.71,1317.87 2507.64,1306.41 2504.10,1301.79 2438.98,1257.85 2396.19,1315.01 2383.64,1331.88 2374.78,1348.00 2383.49,1353.19 2428.92,1342.37 2416.42,1333.42 2410.36,1342.08 2399.52,1335.55 2410.36,1317.97 2419.29,1323.17 2430.23,1309.90 2433.19,1312.56 2421.28,1329.46 2437.40,1340.23 2449.17,1336.24 2439.00,1329.08 2448.23,1315.13 2429.39,1301.28 2424.49,1306.74 2418.97,1303.14 2428.94,1285.76 2440.68,1291.04 2446.70,1283.89 2452.63,1288.35 2450.34,1293.02 2465.45,1301.39 2468.80,1297.39 2474.54,1300.56 2476.31,1306.85 2472.33,1310.61 2466.67,1312.18 2448.84,1300.50 2445.04,1305.36"/>
    <poly id="110401528" type="building" color="255,230,230" fill="1" layer="2.00" shape="2635.37,1318.77 2649.96,1314.35 2644.82,1296.78 2629.34,1301.97 2635.37,1318.77"/>
    <poly id="110401531" type="building" color="255,230,230" fill="1" layer="2.00" shape="2920.57,1416.82 2918.08,1405.14 2932.42,1401.87 2934.89,1414.42 2920.57,1416.82"/>
    <poly id="110401532" type="building" color="255,230,230" fill="1" layer="2.00" shape="2859.50,1007.73 2861.76,1007.90 2862.04,1013.83 2886.20,1012.71 2885.98,1006.78 2888.14,1006.73 2888.05,1000.48 2887.39,1000.47 2886.91,988.73 2877.39,989.17 2877.60,999.40 2869.01,999.65 2868.73,989.90 2858.79,990.22 2859.50,1007.73"/>
    <poly id="110401533" type="building" color="255,230,230" fill="1" layer="2.00" shape="2935.38,1329.48 2868.01,1294.98 2855.27,1287.09 2837.58,1278.22 2824.37,1271.84 2830.62,1264.26 2836.22,1256.67 2838.62,1248.12 2838.67,1238.23 2849.13,1234.63 2848.09,1233.10 2871.83,1225.78 2878.83,1246.20 2958.94,1286.69 2951.15,1303.26 2923.02,1289.16 2920.76,1292.96 2866.68,1264.37 2874.71,1247.16 2873.31,1242.82 2857.25,1245.61 2847.43,1265.57 2881.12,1281.34 2889.46,1284.58 2887.62,1288.41 2937.79,1312.90 2953.29,1319.67 2967.85,1324.15 2971.30,1324.68 2978.83,1325.53 2980.08,1319.11 2990.45,1319.18 2991.70,1328.68 3005.78,1327.13 3007.52,1340.34 2994.11,1343.00 2979.12,1343.81 2977.97,1341.43 2969.57,1340.56 2960.32,1339.02 2951.32,1336.62 2942.13,1332.92 2935.38,1329.48"/>
    <poly id="110401535" type="amenity" color="237,199,199" fill="1" layer="2.00" shape="2716.55,1041.14 2737.66,1027.08 2744.47,1038.67 2754.37,1032.05 2757.49,1036.65 2761.21,1034.82 2764.10,1039.84 2761.01,1042.35 2763.27,1046.50 2774.23,1040.55 2780.85,1051.27 2760.41,1064.49 2761.75,1070.55 2743.07,1074.56 2742.34,1069.37 2729.37,1077.85 2722.09,1067.75 2739.69,1055.74 2733.97,1044.82 2724.26,1051.67 2716.55,1041.14"/>
    <poly id="110401536" type="building" color="255,230,230" fill="1" layer="2.00" shape="2494.57,1222.77 2471.34,1211.60 2499.43,1155.33 2504.31,1142.54 2566.77,1164.69 2546.69,1204.60 2538.29,1219.22 2530.43,1214.70 2523.19,1226.98 2528.50,1229.93 2517.80,1250.08 2520.66,1272.33 2526.14,1301.10 2520.04,1302.87 2488.66,1281.79 2445.76,1255.02 2468.40,1216.46 2496.07,1231.42 2492.64,1238.21 2504.55,1244.98 2512.05,1231.42 2506.96,1228.06 2518.53,1207.71 2522.79,1209.54 2527.58,1200.20 2518.39,1196.51 2521.09,1192.71 2512.35,1188.39 2494.57,1222.77"/>
    <poly id="110401542" type="building" color="255,230,230" fill="1" layer="2.00" shape="2539.30,1237.97 2532.92,1250.07 2531.47,1263.80 2531.54,1277.14 2533.76,1290.97 2537.56,1302.05 2539.68,1311.58 2562.57,1303.59 2601.56,1291.31 2601.50,1293.24 2611.08,1290.70 2630.71,1283.71 2629.47,1281.52 2692.99,1264.52 2693.58,1250.98 2697.51,1241.41 2707.18,1227.03 2717.39,1216.98 2694.73,1208.40 2601.86,1177.04 2576.21,1167.09 2563.73,1197.32 2556.64,1211.54 2543.06,1234.62 2567.00,1243.67 2560.13,1250.58 2551.92,1258.33 2557.18,1263.63 2588.37,1251.99 2616.85,1245.02 2628.61,1241.47 2653.84,1235.05 2654.34,1232.49 2575.90,1202.38 2583.43,1187.51 2691.04,1225.08 2677.57,1251.83 2607.48,1272.10 2556.73,1288.16 2546.88,1293.05 2541.38,1280.42 2542.09,1262.57 2552.18,1248.87 2539.30,1237.97"/>
    <poly id="110401543" type="building" color="255,230,230" fill="1" layer="2.00" shape="2648.24,1385.76 2657.20,1397.41 2687.43,1373.91 2700.15,1351.01 2679.89,1357.13 2669.02,1352.31 2652.22,1366.29 2656.40,1379.30 2648.24,1385.76"/>
    <poly id="110401545" type="building" color="255,230,230" fill="1" layer="2.00" shape="2970.91,1296.82 2977.69,1293.78 2947.76,1242.82 2945.48,1247.27 2935.27,1241.41 2931.98,1243.46 2915.71,1245.82 2899.96,1237.65 2898.94,1235.25 2943.33,1222.90 2956.16,1227.56 2971.22,1253.35 2989.14,1285.70 3012.48,1324.86 3015.62,1328.38 3016.84,1339.17 3034.20,1336.21 3034.50,1332.98 2988.87,1255.99 2966.81,1217.59 2942.43,1208.25 2882.38,1224.69 2887.79,1240.12 2893.52,1244.14 2966.39,1280.34 2963.90,1284.79 2970.91,1296.82"/>
    <poly id="110401546" type="building" color="255,230,230" fill="1" layer="2.00" shape="2814.09,1147.29 2849.73,1083.05 2839.51,1069.65 2760.65,1087.09 2720.44,1096.76 2745.68,1161.36 2761.40,1202.68 2773.99,1200.22 2786.32,1199.48 2811.37,1152.17 2798.80,1145.59 2776.50,1187.60 2770.65,1188.51 2739.98,1108.91 2783.43,1099.54 2793.63,1121.34 2800.55,1113.14 2796.64,1106.14 2814.44,1102.54 2800.71,1131.22 2804.52,1141.87 2814.09,1147.29"/>
    <poly id="110401547" type="building" color="255,230,230" fill="1" layer="2.00" shape="2598.94,1053.43 2613.84,1061.59 2592.78,1113.74 2581.72,1131.08 2523.75,1102.61 2550.69,1009.31 2565.70,965.16 2579.45,931.93 2585.47,934.12 2589.30,924.43 2592.53,915.32 2586.61,911.71 2592.27,901.32 2622.68,926.89 2617.83,938.38 2612.04,936.94 2599.55,975.33 2592.05,973.20 2588.18,980.41 2597.34,985.39 2591.24,995.13 2582.24,992.29 2580.58,997.85 2593.00,1002.62 2602.05,1011.13 2589.87,1029.52 2585.40,1027.47 2582.76,1037.29 2588.98,1038.75 2579.83,1073.36 2585.88,1076.77 2573.57,1105.04 2580.20,1107.37 2594.03,1075.46 2587.25,1070.33 2598.94,1053.43"/>
    <poly id="110401548" type="building" color="255,230,230" fill="1" layer="2.00" shape="2500.62,1342.37 2528.51,1333.44 2536.38,1385.52 2431.79,1419.48 2426.38,1404.28 2510.31,1375.34 2500.62,1342.37"/>
    <poly id="110401549" type="tourism" color="207,245,201" fill="1" layer="-10.00" shape="2642.42,1369.24 2700.15,1351.01 2705.34,1342.76 2702.15,1340.95 2721.05,1305.10 2717.41,1303.70 2714.68,1308.79 2711.07,1306.76 2713.15,1301.44 2709.96,1299.84 2627.92,1322.80 2642.42,1369.24"/>
    <poly id="110401551" type="building" color="255,230,230" fill="1" layer="2.00" shape="2428.41,1385.18 2457.37,1376.27 2457.73,1378.87 2488.02,1368.93 2483.09,1351.79 2453.02,1361.53 2452.00,1359.13 2422.61,1368.09 2428.41,1385.18"/>
    <poly id="110401552" type="building" color="255,230,230" fill="1" layer="2.00" shape="2835.82,1038.57 2839.07,1038.43 2843.20,1029.30 2851.24,1019.84 2785.10,910.65 2780.62,908.58 2770.66,917.57 2767.88,924.60 2744.76,948.72 2745.29,953.25 2772.72,992.52 2816.64,1061.28 2836.21,1056.22 2838.32,1042.08 2829.69,1042.06 2822.26,1045.30 2761.93,952.62 2778.96,929.84 2834.23,1017.86 2826.98,1022.83 2835.82,1038.57"/>
    <poly id="110401553" type="building" color="255,230,230" fill="1" layer="2.00" shape="2644.82,1296.78 2693.17,1281.75 2688.26,1291.75 2684.94,1298.52 2657.30,1306.38 2644.82,1296.78"/>
    <poly id="110401554" type="building" color="255,230,230" fill="1" layer="2.00" shape="2824.71,1169.53 2836.18,1176.30 2838.45,1172.49 2841.01,1173.63 2854.64,1149.04 2851.44,1147.66 2867.34,1118.61 2869.69,1119.54 2874.95,1108.70 2881.66,1108.03 2887.86,1118.52 2889.63,1117.07 2910.45,1153.36 2906.94,1155.41 2914.76,1169.61 2919.12,1168.22 2925.25,1181.09 2889.95,1192.61 2846.36,1206.92 2828.16,1193.51 2833.86,1182.26 2821.12,1174.82 2808.10,1200.94 2819.21,1205.32 2828.78,1210.31 2836.57,1217.63 2839.26,1222.22 2938.56,1192.00 2943.67,1178.79 2891.83,1091.51 2864.38,1092.97 2824.71,1169.53"/>
    <poly id="110401557" type="building" color="255,230,230" fill="1" layer="2.00" shape="2693.17,1281.75 2697.75,1280.36 2704.59,1290.88 2710.94,1295.36 2719.25,1299.45 2727.19,1301.39 2706.25,1340.84 2703.90,1339.92 2722.61,1303.42 2717.48,1301.12 2715.86,1305.17 2712.63,1305.08 2714.06,1299.95 2710.00,1298.12 2665.38,1311.11 2664.15,1308.93 2707.89,1296.56 2699.03,1288.79 2688.26,1291.75 2693.17,1281.75"/>
    <poly id="110401561" type="building" color="255,230,230" fill="1" layer="2.00" shape="2895.69,1339.11 2903.39,1325.98 2811.04,1275.91 2785.99,1291.58 2811.83,1373.63 2935.91,1353.33 2937.64,1345.20 2907.42,1328.67 2900.13,1342.89 2857.77,1351.64 2855.74,1338.89 2864.12,1332.44 2852.61,1326.97 2852.54,1329.54 2837.63,1322.33 2828.28,1324.36 2835.17,1356.84 2826.26,1358.96 2809.58,1305.35 2816.17,1301.66 2895.69,1339.11"/>
    <poly id="110401562" type="building" color="255,230,230" fill="1" layer="2.00" shape="2673.53,979.06 2683.02,971.79 2695.71,981.39 2674.70,999.54 2617.55,948.92 2626.76,935.61 2639.48,944.35 2637.23,947.95 2673.53,979.06"/>
    <poly id="110401564" type="building" color="255,230,230" fill="1" layer="2.00" shape="2796.54,1366.47 2778.05,1297.39 2763.31,1299.57 2750.98,1300.31 2707.50,1379.24 2717.43,1392.76 2799.80,1379.33 2796.54,1366.47"/>
    <poly id="110401566" type="building" color="255,230,230" fill="1" layer="2.00" shape="2542.71,1327.16 2556.19,1323.64 2573.18,1422.03 2559.27,1425.31 2542.71,1327.16"/>
    <poly id="110487669" type="building" color="255,230,230" fill="1" layer="2.00" shape="3444.24,1104.94 3434.60,1094.19 3416.65,1110.69 3409.33,1102.00 3410.22,1099.17 3407.48,1096.51 3409.48,1094.62 3429.52,1092.32 3429.41,1090.54 3432.44,1090.19 3431.57,1080.22 3428.33,1080.57 3428.26,1079.22 3407.40,1081.66 3408.48,1091.70 3407.18,1091.93 3406.27,1081.58 3389.87,1082.85 3389.96,1083.66 3374.32,1085.27 3374.27,1084.68 3351.26,1087.24 3360.38,1101.14 3358.95,1102.24 3374.29,1125.95 3383.08,1118.24 3369.48,1098.28 3373.56,1095.27 3374.19,1099.48 3378.60,1096.37 3381.71,1100.98 3398.84,1098.44 3398.92,1099.83 3400.98,1099.35 3401.69,1100.88 3411.78,1111.27 3388.88,1131.30 3390.77,1133.18 3383.69,1139.56 3391.98,1152.27 3400.64,1143.68 3397.48,1140.47 3419.50,1121.27 3422.54,1124.58 3444.24,1104.94"/>
    <poly id="110487670" type="building" color="255,230,230" fill="1" layer="2.00" shape="2946.02,1414.29 2959.48,1411.53 2953.60,1381.68 2966.63,1378.92 3027.58,1404.78 3004.72,1415.57 2988.14,1417.69 2986.56,1408.29 2975.71,1410.36 2977.23,1417.94 2968.22,1419.74 2968.48,1422.00 2961.11,1422.99 2959.74,1417.68 2945.86,1420.21 2949.27,1437.73 3006.73,1429.18 3045.85,1412.06 3046.49,1400.45 2967.10,1361.81 2936.17,1367.43 2946.02,1414.29"/>
    <poly id="110487671" type="building" color="255,230,230" fill="1" layer="2.00" shape="3279.46,1267.34 3291.60,1257.77 3287.61,1253.57 3326.97,1219.89 3349.41,1200.81 3352.61,1198.21 3401.96,1158.56 3414.16,1162.66 3424.27,1195.64 3425.09,1208.90 3423.81,1216.29 3422.23,1223.13 3419.79,1229.42 3411.00,1246.82 3405.57,1255.82 3394.19,1249.48 3405.99,1224.63 3410.09,1208.81 3409.37,1199.76 3406.47,1191.06 3404.58,1185.10 3407.84,1184.22 3404.90,1173.49 3388.81,1185.53 3391.32,1188.28 3381.39,1196.08 3382.33,1197.19 3352.27,1222.62 3350.05,1220.84 3297.11,1265.35 3298.82,1266.36 3286.67,1276.14 3279.46,1267.34"/>
    <poly id="110487673" type="building" color="255,230,230" fill="1" layer="2.00" shape="3473.10,1006.52 3473.71,1005.99 3479.62,1015.20 3471.69,1020.78 3483.27,1035.85 3490.64,1030.67 3504.69,1050.09 3493.18,1060.33 3416.68,1066.20 3413.83,1036.00 3407.34,965.23 3444.13,958.38 3473.10,1006.52"/>
    <poly id="110487675" type="building" color="255,230,230" fill="1" layer="2.00" shape="3474.19,988.46 3492.29,978.31 3498.69,992.80 3509.35,986.09 3512.14,990.80 3496.98,1000.28 3500.80,1006.73 3497.91,1009.66 3510.69,1024.11 3571.80,969.17 3576.75,973.51 3580.94,974.38 3584.72,978.35 3511.78,1043.73 3490.09,1014.08 3474.19,988.46"/>
    <poly id="110487676" type="building" color="255,230,230" fill="1" layer="2.00" shape="3445.41,1103.31 3433.63,1090.12 3446.52,1078.47 3458.64,1091.72 3445.41,1103.31"/>
    <poly id="110535790" type="building" color="255,230,230" fill="1" layer="2.00" shape="2832.94,1450.59 2895.71,1441.43 2894.01,1428.26 2871.60,1430.44 2871.01,1424.29 2863.31,1425.80 2862.56,1417.39 2880.66,1415.09 2879.10,1401.17 2874.76,1401.70 2874.18,1395.33 2886.13,1392.86 2888.74,1404.12 2896.78,1401.86 2894.80,1391.16 2914.90,1386.97 2916.59,1396.26 2929.63,1393.18 2925.55,1368.32 2816.04,1388.80 2823.26,1415.17 2834.41,1412.41 2832.27,1401.49 2843.82,1399.57 2845.03,1408.25 2843.44,1408.66 2846.74,1429.42 2841.06,1429.86 2839.81,1422.53 2827.80,1424.19 2832.94,1450.59"/>
    <poly id="110535791" type="building" color="255,230,230" fill="1" layer="2.00" shape="2799.56,1427.74 2812.18,1424.43 2818.73,1453.65 2707.39,1482.05 2670.99,1493.97 2666.80,1481.38 2655.96,1474.84 2676.21,1437.08 2707.45,1415.77 2715.56,1427.09 2689.53,1447.56 2668.11,1480.98 2701.28,1468.32 2698.74,1458.36 2723.11,1451.92 2733.76,1449.19 2734.90,1454.82 2801.18,1439.62 2799.56,1427.74"/>
    <poly id="110535792" type="building" color="255,230,230" fill="1" layer="2.00" shape="2653.15,1498.87 2665.15,1494.46 2659.92,1480.32 2654.61,1476.96 2646.00,1492.01 2653.15,1498.87"/>
    <poly id="110535793" type="building" color="255,230,230" fill="1" layer="2.00" shape="2611.91,1506.79 2615.94,1501.52 2657.51,1426.03 2649.78,1416.35 2589.02,1427.18 2592.53,1440.84 2618.53,1437.89 2594.70,1448.64 2599.02,1464.25 2611.30,1470.70 2613.72,1471.97 2606.17,1487.48 2611.91,1506.79"/>