<?xml version="1.0" encoding="UTF-8"?>

<!-- generated on 03/27/15 04:24:41 by SUMO polyconvert Version 0.22.0
<?xml version="1.0" encoding="UTF-8"?>

<configuration xmlns:xsi="http://www.w3.org/2001/XMLSchema-instance" xsi:noNamespaceSchemaLocation="http://sumo.dlr.de/xsd/polyconvertConfiguration.xsd">

    <input>
        <net-file value="careggi.net.xml"/>
        <osm-files value="careggi.osm"/>
    </input>

    <output>
        <output-file value="careggi.poly.xml"/>
    </output>

    <building_defaults>
        <type value="typemap.xml"/>
    </building_defaults>

</configuration>
-->

<additional xmlns:xsi="http://www.w3.org/2001/XMLSchema-instance" xsi:noNamespaceSchemaLocation="http://sumo.dlr.de/xsd/additional_file.xsd">
    <poly id="102631961" type="typemap.xml" color="51,128,255" fill="0" layer="-1.00" shape="2971.29,1731.58 2968.22,1724.51 2960.84,1707.54 2954.45,1692.85 2947.78,1676.92 2940.85,1660.79 2933.66,1644.08 2935.27,1631.74"/>
    <poly id="105315932" type="typemap.xml" color="51,128,255" fill="0" layer="-1.00" shape="1600.43,816.68 1602.93,818.48 1605.21,821.20 1607.19,827.01 1607.15,829.84"/>
    <poly id="106145503" type="typemap.xml" color="51,128,255" fill="0" layer="-1.00" shape="1451.53,322.00 1442.66,288.40 1424.70,254.27"/>
    <poly id="107113823" type="typemap.xml" color="51,128,255" fill="0" layer="-1.00" shape="1045.32,708.80 1004.77,737.87"/>
    <poly id="107113827" type="typemap.xml" color="51,128,255" fill="0" layer="-1.00" shape="953.65,610.11 795.83,689.73"/>
    <poly id="107540259" type="typemap.xml" color="51,128,255" fill="0" layer="-1.00" shape="1407.25,383.47 1413.62,405.85"/>
    <poly id="107540260" type="typemap.xml" color="51,128,255" fill="0" layer="-1.00" shape="1394.23,331.44 1388.98,331.24 1321.87,349.20"/>
    <poly id="107540261" type="typemap.xml" color="51,128,255" fill="0" layer="-1.00" shape="1503.36,305.00 1451.53,322.00 1402.34,337.47"/>
    <poly id="107540262" type="typemap.xml" color="51,128,255" fill="0" layer="-1.00" shape="1573.18,356.11 1614.84,321.16 1630.71,315.10"/>
    <poly id="107540263" type="typemap.xml" color="51,128,255" fill="0" layer="-1.00" shape="1407.25,383.47 1402.62,393.32"/>
    <poly id="107541319" type="typemap.xml" color="51,128,255" fill="0" layer="-1.00" shape="1268.73,230.02 1269.55,231.55 1284.36,258.18 1303.29,295.77 1309.11,308.70 1321.87,349.20 1330.12,381.31 1332.84,387.74 1335.10,391.12 1338.10,394.28 1341.90,396.77 1345.73,398.13 1352.46,398.19 1358.96,398.20 1390.13,393.08 1402.62,393.32 1413.62,405.85 1426.62,433.09 1454.06,488.09"/>
    <poly id="107541320" type="typemap.xml" color="51,128,255" fill="0" layer="-1.00" shape="1508.62,333.42 1483.52,345.27 1412.50,380.84 1407.25,383.47"/>
    <poly id="110311631" type="typemap.xml" color="51,128,255" fill="1" layer="-1.00" shape="1645.37,841.49 1653.60,842.83 1648.07,871.68 1639.90,870.23 1645.37,841.49"/>
    <poly id="110311633" type="typemap.xml" color="51,128,255" fill="1" layer="-1.00" shape="1629.53,854.61 1637.63,856.17 1640.53,840.87 1632.64,839.15 1629.53,854.61"/>
    <poly id="110311634" type="typemap.xml" color="51,128,255" fill="1" layer="-1.00" shape="1652.69,872.67 1660.63,874.23 1663.64,858.71 1655.43,857.03 1652.69,872.67"/>
    <poly id="110354081" type="typemap.xml" color="51,128,255" fill="1" layer="-1.00" shape="3229.58,376.81 3188.18,306.82 3189.47,303.20 3277.21,261.68 3342.35,232.90 3355.73,248.86 3345.35,257.40 3339.85,249.18 3264.92,284.48 3208.15,311.34 3224.84,340.63 3230.33,337.56 3228.10,328.14 3244.84,324.18 3251.47,334.47 3243.22,339.95 3249.57,348.41 3319.93,294.80 3316.68,291.27 3327.82,282.32 3332.54,287.51 3357.75,265.92 3350.94,258.41 3358.34,251.94 3374.98,271.66 3302.26,328.97 3264.41,355.16 3229.58,376.81"/>
    <poly id="110355063" type="typemap.xml" color="51,128,255" fill="1" layer="-1.00" shape="1504.36,815.78 1523.60,806.83 1518.32,794.64 1552.40,780.06 1545.94,763.54 1503.58,780.90 1493.97,784.51 1490.04,786.56 1504.36,815.78"/>
    <poly id="110355064" type="typemap.xml" color="51,128,255" fill="1" layer="-1.00" shape="2922.17,691.03 2797.39,689.78 2796.98,736.69 2808.20,736.99 2810.11,777.93 2833.94,775.14 2861.57,823.23 2929.57,784.62 2922.17,691.03"/>
    <poly id="110355065" type="typemap.xml" color="51,128,255" fill="1" layer="-1.00" shape="1811.48,798.24 1804.22,779.11 1859.61,759.08 1865.57,778.18 1811.48,798.24"/>
    <poly id="110355066" type="typemap.xml" color="51,128,255" fill="1" layer="-1.00" shape="1895.46,918.86 1913.10,905.13 1890.52,877.84 1872.39,893.27 1895.46,918.86"/>
    <poly id="110355067" type="typemap.xml" color="51,128,255" fill="1" layer="-1.00" shape="2724.02,719.65 2727.46,688.32 2775.71,692.64 2773.58,723.57 2724.02,719.65"/>
    <poly id="110355068" type="typemap.xml" color="51,128,255" fill="1" layer="-1.00" shape="1486.26,783.69 1510.45,845.58 1422.09,879.87 1397.89,817.98 1486.26,783.69"/>
    <poly id="110363990" type="typemap.xml" color="51,128,255" fill="1" layer="-1.00" shape="2699.80,1711.77 2754.03,1697.20 2730.27,1613.64 2723.56,1615.09 2719.10,1616.06 2686.56,1660.47 2699.80,1711.77"/>
    <poly id="110401502" type="typemap.xml" color="51,128,255" fill="0" layer="-1.00" shape="2827.04,329.50 2841.92,338.29"/>
    <poly id="110401507" type="typemap.xml" color="51,128,255" fill="1" layer="-1.00" shape="3056.71,428.49 3054.77,412.51 3081.46,407.65 3082.76,423.60 3070.62,425.21 3070.96,428.44 3056.71,428.49"/>
    <poly id="110401514" type="typemap.xml" color="51,128,255" fill="0" layer="-1.00" shape="2796.43,351.48 2792.85,339.33"/>
    <poly id="110401526" type="typemap.xml" color="51,128,255" fill="0" layer="-1.00" shape="2783.94,341.89 2792.85,339.33"/>
    <poly id="110401527" type="typemap.xml" color="51,128,255" fill="1" layer="-1.00" shape="2589.84,292.51 2604.26,302.15 2600.16,310.01 2603.11,312.88 2605.13,310.14 2613.13,317.46 2654.51,305.02 2652.44,293.56 2648.90,288.94 2583.78,245.00 2540.99,302.16 2528.44,319.03 2519.58,335.15 2528.29,340.34 2573.72,329.52 2561.22,320.57 2555.16,329.23 2544.32,322.70 2555.16,305.12 2564.09,310.32 2575.03,297.05 2577.99,299.71 2566.08,316.61 2582.20,327.38 2593.97,323.39 2583.80,316.23 2593.03,302.28 2574.19,288.43 2569.29,293.89 2563.77,290.29 2573.74,272.91 2585.48,278.19 2591.50,271.04 2597.43,275.50 2595.14,280.17 2610.25,288.54 2613.60,284.54 2619.34,287.71 2621.11,294.00 2617.13,297.76 2611.47,299.33 2593.64,287.65 2589.84,292.51"/>
    <poly id="110401531" type="typemap.xml" color="51,128,255" fill="1" layer="-1.00" shape="3065.37,403.97 3062.88,392.29 3077.22,389.02 3079.69,401.57 3065.37,403.97"/>
    <poly id="110401543" type="typemap.xml" color="51,128,255" fill="1" layer="-1.00" shape="2793.04,372.91 2802.00,384.56 2832.23,361.06 2844.95,338.16 2824.69,344.28 2813.82,339.46 2797.02,353.44 2801.20,366.45 2793.04,372.91"/>
    <poly id="110401544" type="typemap.xml" color="51,128,255" fill="0" layer="-1.00" shape="2863.19,388.37 2821.67,411.25"/>
    <poly id="110401548" type="typemap.xml" color="51,128,255" fill="1" layer="-1.00" shape="2645.42,329.52 2673.31,320.59 2681.18,372.67 2576.59,406.63 2571.18,391.43 2655.11,362.49 2645.42,329.52"/>
    <poly id="110401549" type="typemap.xml" color="51,128,255" fill="1" layer="-1.00" shape="2787.22,356.39 2844.95,338.16 2850.14,329.91 2846.95,328.10 2865.85,292.25 2862.21,290.85 2859.48,295.94 2855.87,293.91 2857.95,288.59 2854.76,286.99 2772.72,309.95 2787.22,356.39"/>
    <poly id="110401551" type="typemap.xml" color="51,128,255" fill="1" layer="-1.00" shape="2573.21,372.33 2602.17,363.42 2602.53,366.02 2632.82,356.08 2627.89,338.94 2597.82,348.68 2596.80,346.28 2567.41,355.24 2573.21,372.33"/>
    <poly id="110401561" type="typemap.xml" color="51,128,255" fill="1" layer="-1.00" shape="3040.49,326.26 3048.19,313.13 2955.84,263.06 2930.79,278.73 2956.63,360.78 3080.71,340.48 3082.44,332.35 3052.22,315.82 3044.93,330.04 3002.57,338.79 3000.54,326.04 3008.92,319.59 2997.41,314.12 2997.34,316.69 2982.43,309.48 2973.08,311.51 2979.97,343.99 2971.06,346.11 2954.38,292.50 2960.97,288.81 3040.49,326.26"/>
    <poly id="110401564" type="typemap.xml" color="51,128,255" fill="1" layer="-1.00" shape="2941.34,353.62 2922.85,284.54 2908.11,286.72 2895.78,287.46 2852.30,366.39 2862.23,379.91 2944.60,366.48 2941.34,353.62"/>
    <poly id="110401566" type="typemap.xml" color="51,128,255" fill="1" layer="-1.00" shape="2687.51,314.31 2700.99,310.79 2717.98,409.18 2704.07,412.46 2687.51,314.31"/>
    <poly id="110487670" type="typemap.xml" color="51,128,255" fill="1" layer="-1.00" shape="3090.82,401.44 3104.28,398.68 3098.40,368.83 3111.43,366.07 3172.38,391.93 3149.52,402.72 3132.94,404.84 3131.36,395.44 3120.51,397.51 3122.03,405.09 3113.02,406.89 3113.28,409.15 3105.91,410.14 3104.54,404.83 3090.66,407.36 3094.07,424.88 3151.53,416.33 3190.65,399.21 3191.29,387.60 3111.90,348.96 3080.97,354.58 3090.82,401.44"/>
    <poly id="110535790" type="typemap.xml" color="51,128,255" fill="1" layer="-1.00" shape="2977.74,437.74 3040.51,428.58 3038.81,415.41 3016.40,417.59 3015.81,411.44 3008.11,412.95 3007.36,404.54 3025.46,402.24 3023.90,388.32 3019.56,388.85 3018.98,382.48 3030.93,380.01 3033.54,391.27 3041.58,389.01 3039.60,378.31 3059.70,374.12 3061.39,383.41 3074.43,380.33 3070.35,355.47 2960.84,375.95 2968.06,402.32 2979.21,399.56 2977.07,388.64 2988.62,386.72 2989.83,395.40 2988.24,395.81 2991.54,416.57 2985.86,417.01 2984.61,409.68 2972.60,411.34 2977.74,437.74"/>
    <poly id="110535791" type="typemap.xml" color="51,128,255" fill="1" layer="-1.00" shape="2944.36,414.89 2956.98,411.58 2963.53,440.80 2852.19,469.20 2815.79,481.12 2811.60,468.53 2800.76,461.99 2821.01,424.23 2852.25,402.92 2860.36,414.24 2834.33,434.71 2812.91,468.13 2846.08,455.47 2843.54,445.51 2867.91,439.07 2878.56,436.34 2879.70,441.97 2945.98,426.77 2944.36,414.89"/>
    <poly id="110535792" type="typemap.xml" color="51,128,255" fill="1" layer="-1.00" shape="2797.95,486.02 2809.95,481.61 2804.72,467.47 2799.41,464.11 2790.80,479.16 2797.95,486.02"/>
    <poly id="110535793" type="typemap.xml" color="51,128,255" fill="1" layer="-1.00" shape="2756.71,493.94 2760.74,488.67 2802.31,413.18 2794.58,403.50 2733.82,414.33 2737.33,427.99 2763.33,425.04 2739.50,435.79 2743.82,451.40 2756.10,457.85 2758.52,459.12 2750.97,474.63 2756.71,493.94"/>
    <poly id="110535794" type="typemap.xml" color="51,128,255" fill="1" layer="-1.00" shape="3163.04,552.97 3175.82,543.41 3168.57,532.23 3175.86,526.20 3190.74,550.70 3192.60,553.98 3195.90,551.71 3197.09,555.61 3200.82,553.56 3207.21,564.50 3193.80,573.38 3187.18,562.87 3182.56,565.76 3186.50,571.89 3170.71,580.72 3160.61,563.23 3167.39,559.76 3163.04,552.97"/>
    <poly id="110535796" type="typemap.xml" color="51,128,255" fill="1" layer="-1.00" shape="3125.74,503.10 3127.51,501.64 3129.90,500.85 3133.18,499.86 3136.87,499.09 3140.54,499.19 3141.59,500.30 3143.30,500.56 3150.12,535.82 3147.05,537.25 3150.67,555.21 3138.97,556.62 3135.40,536.93 3128.66,538.47 3122.44,505.16 3125.74,503.10"/>
    <poly id="110535797" type="typemap.xml" color="51,128,255" fill="1" layer="-1.00" shape="3074.91,506.02 3072.41,494.76 3123.01,484.30 3127.51,501.64 3121.57,505.57 3123.61,518.11 3129.09,546.88 3137.16,551.83 3140.42,558.80 3149.96,557.56 3158.06,593.07 3134.84,597.38 3120.17,596.77 3119.27,590.29 3074.02,594.44 3072.52,578.26 3108.47,574.50 3095.03,504.85 3074.19,508.79 3074.91,506.02"/>
    <poly id="110535798" type="typemap.xml" color="51,128,255" fill="1" layer="-1.00" shape="3179.43,585.69 3190.07,599.53 3185.41,603.93 3192.92,613.60 3219.64,591.94 3223.38,597.42 3225.79,596.20 3228.48,600.58 3201.79,620.95 3209.33,629.54 3200.72,636.62 3194.89,628.50 3191.81,630.36 3169.87,595.55 3179.43,585.69"/>
    <poly id="110535799" type="typemap.xml" color="51,128,255" fill="1" layer="-1.00" shape="3216.42,694.50 3220.19,690.95 3194.04,651.72 3231.08,623.68 3239.17,635.95 3212.75,654.81 3235.40,687.27 3238.92,684.79 3236.24,680.41 3249.51,668.94 3261.39,684.76 3247.49,695.57 3243.96,690.31 3239.76,693.64 3266.20,730.08 3264.43,731.32 3267.55,735.93 3295.90,717.97 3309.56,739.65 3275.06,761.73 3277.29,766.75 3278.60,766.56 3297.44,796.34 3285.79,803.56 3279.81,793.07 3275.20,795.96 3291.16,820.49 3296.91,815.70 3305.62,828.63 3299.04,832.54 3300.06,834.72 3287.76,842.56 3257.56,793.53 3251.61,797.68 3247.28,790.46 3252.35,786.72 3247.43,776.91 3258.21,769.67 3268.59,785.23 3272.35,781.89 3265.88,773.54 3272.90,769.42 3254.49,739.65 3252.51,741.11 3230.08,708.22 3227.21,710.51 3216.42,694.50"/>
    <poly id="110535800" type="typemap.xml" color="51,128,255" fill="1" layer="-1.00" shape="2855.87,401.23 2883.91,394.45 2886.56,402.77 2887.09,404.44 2884.06,420.72 2880.36,421.69 2881.60,423.88 2869.19,427.41 2860.67,415.13 2860.36,414.24 2855.87,401.23"/>
    <poly id="110535801" type="typemap.xml" color="51,128,255" fill="1" layer="-1.00" shape="2882.00,389.31 2947.56,376.45 2954.89,400.97 2946.42,402.89 2946.02,393.63 2886.56,402.77 2882.00,389.31"/>
    <poly id="110537489" type="typemap.xml" color="51,128,255" fill="1" layer="-1.00" shape="2311.82,798.00 2315.03,831.01 2314.44,836.80 2309.20,847.20 2305.85,850.78 2285.82,833.02 2293.36,825.68 2289.89,826.23 2289.01,819.11 2278.13,822.26 2271.17,816.05 2273.38,814.17 2300.37,806.29 2299.66,800.47 2303.56,799.93 2303.51,797.98 2311.82,798.00"/>
    <poly id="110537490" type="typemap.xml" color="51,128,255" fill="1" layer="-1.00" shape="2584.95,580.20 2594.19,589.71 2529.51,645.52 2520.50,635.16 2553.77,607.12 2584.95,580.20"/>
    <poly id="110537491" type="typemap.xml" color="51,128,255" fill="1" layer="-1.00" shape="2425.33,641.07 2433.54,652.92 2451.46,640.92 2443.16,628.43 2425.33,641.07"/>
    <poly id="110537492" type="typemap.xml" color="51,128,255" fill="1" layer="-1.00" shape="2529.42,577.29 2519.82,568.96 2522.74,564.53 2519.27,561.31 2526.65,551.93 2533.53,556.75 2542.04,549.66 2531.84,539.38 2516.51,551.55 2492.35,522.60 2504.54,510.87 2502.47,507.70 2464.11,541.09 2475.84,546.36 2487.72,554.21 2504.45,566.50 2509.73,562.51 2527.20,581.05 2528.19,580.54 2530.92,583.73 2544.59,599.01 2533.62,609.26 2514.39,629.82 2508.86,622.46 2495.39,609.84 2481.21,599.01 2466.15,588.93 2444.02,576.81 2461.14,542.52 2457.10,540.58 2466.42,523.19 2463.27,519.66 2456.27,523.24 2444.75,558.00 2443.09,563.23 2445.55,564.05 2439.53,575.40 2426.29,569.66 2443.88,510.10 2505.63,490.67 2508.64,499.16 2513.18,495.29 2558.90,548.94 2539.90,564.88 2529.42,577.29"/>
    <poly id="110537495" type="typemap.xml" color="51,128,255" fill="1" layer="-1.00" shape="2489.17,651.74 2492.94,656.35 2482.74,665.87 2485.99,669.51 2481.78,673.70 2488.04,681.51 2470.88,697.18 2463.21,689.22 2470.30,682.75 2463.71,675.14 2468.17,671.05 2489.17,651.74"/>
    <poly id="110537497" type="typemap.xml" color="51,128,255" fill="1" layer="-1.00" shape="2678.62,502.36 2695.36,502.06 2696.27,512.41 2711.30,511.85 2711.11,522.61 2696.70,524.15 2677.30,523.09 2678.62,502.36"/>
    <poly id="110537498" type="typemap.xml" color="51,128,255" fill="1" layer="-1.00" shape="2651.94,518.42 2675.13,519.70 2676.91,501.67 2678.66,492.57 2679.96,488.84 2670.94,486.66 2669.99,493.84 2662.34,493.21 2662.77,485.68 2654.04,484.91 2651.94,518.42"/>
    <poly id="110537499" type="typemap.xml" color="51,128,255" fill="1" layer="-1.00" shape="2354.00,669.56 2357.96,669.51 2357.84,653.54 2361.81,653.38 2368.50,636.89 2371.77,630.16 2361.02,630.67 2361.57,623.95 2374.71,624.67 2390.51,628.07 2393.57,621.07 2376.35,617.39 2379.25,603.99 2401.64,602.55 2405.34,594.41 2353.91,602.09 2352.16,618.81 2338.67,619.36 2340.57,604.08 2349.37,602.59 2352.36,578.96 2348.62,578.37 2351.35,559.55 2345.02,558.36 2333.83,563.39 2323.76,617.25 2320.83,641.03 2322.87,641.26 2321.54,670.09 2334.51,669.96 2338.37,669.84 2338.34,658.43 2353.93,658.39 2354.00,669.56"/>
    <poly id="110537500" type="typemap.xml" color="51,128,255" fill="1" layer="-1.00" shape="2655.16,479.78 2658.83,439.63 2648.60,442.91 2648.55,452.70 2645.52,452.83 2643.01,477.72 2655.16,479.78"/>
    <poly id="110537501" type="typemap.xml" color="51,128,255" fill="1" layer="-1.00" shape="2276.61,719.14 2282.52,724.03 2310.20,722.64 2308.11,624.45 2311.11,624.96 2322.59,575.57 2319.17,574.40 2276.61,719.14"/>
    <poly id="110537502" type="typemap.xml" color="51,128,255" fill="1" layer="-1.00" shape="2263.96,795.19 2263.59,768.71 2310.07,766.96 2310.74,790.22 2292.80,790.59 2292.47,794.89 2263.96,795.19"/>
    <poly id="110537503" type="typemap.xml" color="51,128,255" fill="1" layer="-1.00" shape="2548.76,572.66 2539.37,580.47 2550.79,593.36 2553.89,590.33 2555.87,593.18 2578.96,573.69 2563.49,554.87 2554.53,563.12 2565.00,574.92 2557.14,582.02 2548.76,572.66"/>
    <poly id="110537504" type="typemap.xml" color="51,128,255" fill="1" layer="-1.00" shape="2631.15,465.03 2626.59,450.06 2596.86,459.47 2611.76,503.02 2614.80,502.36 2616.17,507.77 2605.59,511.57 2589.69,460.90 2546.86,475.65 2551.48,488.16 2572.43,480.43 2573.29,484.11 2579.84,481.71 2591.13,515.16 2591.68,518.84 2608.89,537.16 2615.42,531.64 2617.73,534.07 2623.24,529.81 2630.79,537.97 2638.66,530.32 2621.66,468.54 2631.15,465.03"/>
    <poly id="110537505" type="typemap.xml" color="51,128,255" fill="1" layer="-1.00" shape="2399.49,694.07 2420.43,710.23 2441.20,693.04 2436.23,689.25 2452.62,673.99 2447.36,668.79 2466.19,651.23 2455.90,640.61 2441.72,653.79 2439.83,651.80 2435.51,651.78 2432.84,654.51 2416.92,668.29 2421.04,671.73 2409.01,685.50 2406.89,683.83 2399.49,694.07"/>
    <poly id="110537506" type="typemap.xml" color="51,128,255" fill="1" layer="-1.00" shape="2528.76,482.16 2535.83,479.88 2566.44,513.74 2570.42,510.61 2601.06,543.30 2595.75,548.00 2608.55,561.80 2620.09,550.37 2632.38,539.20 2641.29,549.12 2620.94,566.53 2605.69,579.68 2578.28,547.19 2545.26,510.59 2526.82,489.86 2528.76,482.16"/>
    <poly id="110539006" type="typemap.xml" color="51,128,255" fill="1" layer="-1.00" shape="2336.84,541.41 2341.95,543.18 2348.55,524.29 2351.35,525.26 2354.79,515.42 2387.99,526.95 2395.98,504.11 2391.13,502.42 2410.11,448.14 2393.95,442.52 2380.99,479.57 2367.95,475.04 2356.49,507.78 2349.45,505.34 2336.84,541.41"/>
    <poly id="110539007" type="typemap.xml" color="51,128,255" fill="1" layer="-1.00" shape="2595.79,423.50 2597.77,430.02 2613.89,425.07 2615.99,435.24 2511.57,471.15 2511.29,473.72 2494.97,478.01 2491.19,466.07 2497.94,464.32 2467.49,448.21 2491.53,390.12 2505.32,365.03 2555.69,349.25 2558.39,361.16 2552.95,362.94 2554.86,372.04 2545.50,374.80 2546.94,385.38 2533.68,388.46 2527.74,400.57 2533.27,403.74 2520.75,427.28 2504.64,455.68 2508.08,456.85 2507.26,454.89 2595.79,423.50"/>
    <poly id="110539011" type="typemap.xml" color="51,128,255" fill="1" layer="-1.00" shape="2404.80,370.77 2427.20,381.06 2472.06,287.58 2450.31,277.10 2404.80,370.77"/>
    <poly id="110539013" type="typemap.xml" color="51,128,255" fill="1" layer="-1.00" shape="2491.29,327.06 2505.10,335.62 2513.24,321.84 2499.65,313.52 2491.29,327.06"/>
    <poly id="110539016" type="typemap.xml" color="51,128,255" fill="1" layer="-1.00" shape="2369.06,550.35 2426.34,524.15 2428.88,526.36 2414.88,564.94 2383.65,553.76 2369.06,550.35"/>
    <poly id="110539019" type="typemap.xml" color="51,128,255" fill="1" layer="-1.00" shape="2481.34,335.40 2504.62,345.28 2488.57,379.28 2473.23,411.79 2459.93,440.26 2445.97,477.12 2435.95,504.39 2407.35,492.00 2421.72,447.84 2412.54,443.94 2423.32,412.37 2410.04,408.57 2402.63,426.88 2399.87,425.30 2396.09,437.03 2383.88,433.47 2386.68,425.80 2384.78,424.24 2399.97,381.62 2411.09,385.58 2409.65,390.92 2415.22,392.57 2413.52,399.63 2424.46,402.51 2448.29,351.94 2467.92,360.64 2481.34,335.40"/>
    <poly id="110550786" type="typemap.xml" color="51,128,255" fill="1" layer="-1.00" shape="3372.46,535.10 3383.49,526.48 3375.75,517.12 3364.40,525.85 3372.46,535.10"/>
    <poly id="110550788" type="typemap.xml" color="51,128,255" fill="1" layer="-1.00" shape="3526.07,370.14 3524.75,354.83 3540.11,353.95 3540.13,369.23 3526.07,370.14"/>
    <poly id="110550792" type="typemap.xml" color="51,128,255" fill="1" layer="-1.00" shape="3555.89,539.89 3562.00,557.05 3554.14,568.14 3541.86,559.19 3534.81,552.65 3531.16,555.68 3521.89,543.38 3514.67,530.91 3519.20,527.16 3526.74,539.63 3535.10,533.73 3543.56,544.40 3541.17,546.55 3546.16,552.00 3555.89,539.89"/>
    <poly id="110550796" type="typemap.xml" color="51,128,255" fill="1" layer="-1.00" shape="3474.91,369.07 3473.10,364.39 3465.25,367.19 3461.35,355.79 3467.04,353.15 3468.57,356.41 3477.73,353.01 3482.22,366.48 3474.91,369.07"/>
    <poly id="110550800" type="typemap.xml" color="51,128,255" fill="1" layer="-1.00" shape="3571.50,569.05 3584.66,561.66 3600.40,586.40 3590.05,593.54 3596.70,603.30 3598.23,602.26 3603.68,608.76 3597.09,612.46 3580.02,585.10 3571.50,569.05"/>
    <poly id="110550804" type="typemap.xml" color="51,128,255" fill="1" layer="-1.00" shape="3338.11,468.10 3339.44,466.75 3344.63,466.67 3351.59,460.62 3347.75,455.14 3339.76,455.02 3339.42,447.70 3332.08,447.61 3331.05,445.97 3324.19,451.91 3331.11,459.42 3333.88,456.90 3334.64,464.67 3338.11,468.10"/>
    <poly id="110550807" type="typemap.xml" color="51,128,255" fill="1" layer="-1.00" shape="3402.95,497.84 3410.88,492.15 3422.56,507.09 3412.58,513.07 3401.95,498.89 3402.95,497.84"/>
    <poly id="110550808" type="typemap.xml" color="51,128,255" fill="1" layer="-1.00" shape="3618.31,650.37 3640.07,640.42 3652.85,670.26 3631.54,679.79 3623.92,666.34 3618.31,650.37"/>
    <poly id="110550809" type="typemap.xml" color="51,128,255" fill="1" layer="-1.00" shape="3236.95,388.42 3247.42,400.22 3256.37,392.72 3253.22,389.61 3256.63,387.12 3251.13,379.11 3239.93,385.70 3236.95,388.42"/>
    <poly id="110550810" type="typemap.xml" color="51,128,255" fill="1" layer="-1.00" shape="3322.38,482.63 3309.15,468.82 3315.90,462.76 3317.68,464.97 3324.53,459.13 3333.86,469.71 3328.75,474.63 3330.10,476.61 3322.38,482.63"/>
    <poly id="110550812" type="typemap.xml" color="51,128,255" fill="1" layer="-1.00" shape="3471.65,433.76 3470.09,427.69 3478.36,425.11 3480.78,431.64 3471.65,433.76"/>
    <poly id="110550813" type="typemap.xml" color="51,128,255" fill="1" layer="-1.00" shape="3531.63,415.60 3548.75,413.15 3552.54,436.51 3548.31,437.46 3550.13,449.89 3548.50,450.27 3548.46,451.78 3546.80,453.34 3544.62,453.93 3542.82,452.80 3548.62,481.58 3556.56,499.24 3561.15,497.00 3566.41,510.15 3561.82,512.29 3565.48,520.68 3579.46,514.71 3581.68,520.57 3578.51,521.89 3583.73,536.24 3571.17,541.71 3575.80,553.77 3566.42,557.60 3556.98,527.55 3536.53,485.34 3535.01,481.53 3529.47,451.26 3526.97,431.72 3527.54,422.91 3531.63,415.60"/>
    <poly id="110550816" type="typemap.xml" color="51,128,255" fill="1" layer="-1.00" shape="3318.92,415.18 3323.65,423.91 3322.44,424.96 3331.68,434.47 3340.81,424.49 3335.69,418.33 3339.47,414.34 3331.07,405.40 3318.92,415.18"/>
    <poly id="110550817" type="typemap.xml" color="51,128,255" fill="1" layer="-1.00" shape="3382.10,371.06 3395.60,387.14 3413.10,370.83 3423.68,382.84 3401.62,403.98 3403.18,405.96 3383.83,422.86 3377.97,415.92 3390.59,404.65 3377.57,390.85 3378.35,390.22 3370.80,381.73 3374.48,377.64 3379.12,373.56 3382.10,371.06"/>
    <poly id="110550821" type="typemap.xml" color="51,128,255" fill="1" layer="-1.00" shape="3361.30,468.95 3367.70,456.00 3370.69,457.26 3375.37,447.92 3385.91,453.49 3378.75,466.52 3376.74,465.07 3371.52,474.39 3361.30,468.95"/>
    <poly id="110550823" type="typemap.xml" color="51,128,255" fill="1" layer="-1.00" shape="3344.41,391.45 3338.35,395.69 3349.40,410.52 3357.12,404.60 3351.81,397.25 3356.99,393.30 3355.85,391.55 3359.93,388.53 3358.58,386.24 3359.80,385.20 3348.96,370.92 3333.63,382.76 3339.26,390.24 3341.90,388.27 3344.41,391.45"/>
    <poly id="110550825" type="typemap.xml" color="51,128,255" fill="1" layer="-1.00" shape="3373.40,492.53 3383.39,498.18 3388.40,489.17 3390.30,490.51 3397.02,477.67 3387.04,471.70 3382.13,481.25 3379.57,480.10 3373.40,492.53"/>
    <poly id="110550826" type="typemap.xml" color="51,128,255" fill="1" layer="-1.00" shape="3254.08,405.56 3264.85,418.45 3274.26,410.09 3272.06,407.24 3280.67,400.26 3272.19,390.67 3254.08,405.56"/>
    <poly id="110550829" type="typemap.xml" color="51,128,255" fill="1" layer="-1.00" shape="3651.69,637.95 3653.90,644.03 3673.03,635.18 3667.74,623.21 3660.76,625.81 3652.40,607.62 3653.64,605.93 3653.17,603.44 3644.33,590.83 3621.22,606.77 3609.13,614.51 3615.54,625.22 3643.45,611.36 3645.07,615.17 3648.89,613.44 3658.15,634.68 3651.69,637.95"/>
    <poly id="110550831" type="typemap.xml" color="51,128,255" fill="1" layer="-1.00" shape="3334.38,497.92 3328.95,491.20 3345.29,477.77 3351.37,484.71 3334.38,497.92"/>
    <poly id="110550838" type="typemap.xml" color="51,128,255" fill="1" layer="-1.00" shape="3344.86,509.82 3361.62,496.83 3355.87,489.89 3339.09,503.43 3344.86,509.82"/>
    <poly id="110550839" type="typemap.xml" color="51,128,255" fill="1" layer="-1.00" shape="3278.57,437.97 3284.32,433.28 3288.84,429.65 3286.96,427.12 3293.38,421.70 3283.11,410.23 3276.68,416.08 3278.25,418.05 3268.85,426.19 3278.57,437.97"/>
    <poly id="110550840" type="typemap.xml" color="51,128,255" fill="1" layer="-1.00" shape="3498.93,371.35 3494.97,354.23 3508.38,349.86 3508.81,353.85 3515.23,351.98 3518.50,366.17 3498.93,371.35"/>
    <poly id="110550842" type="typemap.xml" color="51,128,255" fill="1" layer="-1.00" shape="3287.62,438.65 3298.67,429.37 3313.73,447.43 3302.25,456.59 3287.62,438.65"/>
    <poly id="110550843" type="typemap.xml" color="51,128,255" fill="1" layer="-1.00" shape="3624.54,675.29 3637.49,695.45 3615.65,708.30 3607.20,693.32 3594.30,699.43 3589.03,690.78 3609.43,678.96 3611.70,682.58 3624.54,675.29"/>
    <poly id="110550844" type="typemap.xml" color="51,128,255" fill="1" layer="-1.00" shape="3355.11,521.94 3349.24,515.43 3366.98,502.14 3372.21,508.63 3355.11,521.94"/>
    <poly id="110550846" type="typemap.xml" color="51,128,255" fill="1" layer="-1.00" shape="3289.87,403.63 3297.19,412.11 3303.27,407.12 3306.63,410.65 3322.43,397.74 3317.51,391.90 3310.58,396.77 3305.54,391.14 3289.87,403.63"/>
    <poly id="110550847" type="typemap.xml" color="51,128,255" fill="1" layer="-1.00" shape="3444.79,380.95 3441.18,370.84 3446.52,369.05 3444.78,365.46 3454.92,362.07 3456.77,361.47 3461.88,376.04 3444.63,382.99 3444.79,380.95"/>
    <poly id="110550849" type="typemap.xml" color="51,128,255" fill="1" layer="-1.00" shape="3495.86,432.69 3492.91,422.29 3505.13,418.60 3512.51,416.36 3515.86,428.08 3495.86,432.69"/>
    <poly id="110550850" type="typemap.xml" color="51,128,255" fill="1" layer="-1.00" shape="3374.26,540.32 3384.31,531.99 3391.93,541.56 3381.56,549.88 3374.26,540.32"/>
    <poly id="110550853" type="typemap.xml" color="51,128,255" fill="1" layer="-1.00" shape="3347.71,436.73 3358.11,427.65 3370.88,442.21 3359.28,452.22 3351.85,443.41 3352.63,442.68 3347.71,436.73"/>
    <poly id="110550854" type="typemap.xml" color="51,128,255" fill="1" layer="-1.00" shape="3485.93,440.60 3491.80,439.25 3490.41,434.91 3495.84,433.56 3492.91,422.29 3505.13,418.60 3503.66,408.16 3478.67,413.94 3485.93,440.60"/>
    <poly id="110555161" type="typemap.xml" color="51,128,255" fill="1" layer="-1.00" shape="3244.53,494.51 3248.93,491.73 3245.08,486.45 3248.92,483.98 3245.37,469.29 3242.89,466.60 3240.26,469.22 3237.45,464.94 3232.37,469.32 3235.83,472.96 3239.51,480.71 3236.00,482.76 3244.53,494.51"/>
    <poly id="110555163" type="typemap.xml" color="51,128,255" fill="1" layer="-1.00" shape="3242.07,465.71 3254.46,454.96 3257.27,458.70 3257.61,458.17 3269.86,472.49 3265.20,476.68 3268.56,480.31 3261.16,486.46 3245.37,469.29 3242.89,466.60 3242.07,465.71"/>
    <poly id="110555165" type="typemap.xml" color="51,128,255" fill="1" layer="-1.00" shape="3317.69,559.88 3332.25,548.65 3336.86,553.83 3337.63,553.00 3342.46,558.18 3328.78,569.00 3326.48,566.14 3323.83,568.32 3317.69,559.88"/>
    <poly id="110555167" type="typemap.xml" color="51,128,255" fill="1" layer="-1.00" shape="3330.23,571.09 3342.91,561.42 3345.97,564.30 3346.40,563.88 3353.28,573.43 3352.07,573.94 3353.92,577.44 3341.26,586.45 3338.44,582.93 3336.89,584.07 3331.83,575.76 3333.04,575.03 3330.23,571.09"/>
    <poly id="110555169" type="typemap.xml" color="51,128,255" fill="1" layer="-1.00" shape="3322.77,535.91 3333.04,527.47 3341.19,537.60 3330.58,546.13 3322.77,535.91"/>
    <poly id="110555171" type="typemap.xml" color="51,128,255" fill="1" layer="-1.00" shape="3299.39,518.06 3307.76,527.86 3322.47,515.02 3317.37,507.89 3316.04,509.37 3310.49,502.97 3297.99,513.83 3301.06,516.39 3299.39,518.06"/>
    <poly id="110555172" type="typemap.xml" color="51,128,255" fill="1" layer="-1.00" shape="3327.26,608.88 3333.07,617.64 3328.78,620.49 3333.69,628.31 3337.59,625.89 3338.42,626.93 3348.59,620.54 3347.65,619.17 3351.39,616.74 3348.78,611.40 3344.71,614.14 3337.41,602.75 3327.26,608.88"/>
    <poly id="110555175" type="typemap.xml" color="51,128,255" fill="1" layer="-1.00" shape="3279.02,484.90 3290.62,475.21 3302.33,489.51 3301.11,490.46 3307.69,498.71 3295.97,508.82 3286.47,496.83 3287.69,495.68 3279.02,484.90"/>
    <poly id="110555178" type="typemap.xml" color="51,128,255" fill="1" layer="-1.00" shape="3221.92,448.70 3214.75,454.11 3229.41,470.64 3236.25,465.55 3221.92,448.70"/>
    <poly id="110555181" type="typemap.xml" color="51,128,255" fill="1" layer="-1.00" shape="3294.04,557.04 3296.81,561.13 3299.88,559.60 3304.34,566.29 3315.36,558.30 3310.25,551.17 3307.06,553.77 3303.17,549.69 3294.04,557.04"/>
    <poly id="110555184" type="typemap.xml" color="51,128,255" fill="1" layer="-1.00" shape="3287.81,530.77 3298.41,546.23 3289.06,552.53 3278.25,536.96 3287.81,530.77"/>
    <poly id="110555185" type="typemap.xml" color="51,128,255" fill="1" layer="-1.00" shape="3275.12,485.34 3281.26,493.67 3275.20,498.36 3268.83,490.32 3275.12,485.34"/>